<edges>
    <edge id="e1" from="1" to="6" priority="1" numLanes="1" speed="14.0"/>
    <edge id="e2" from="2" to="6" priority="1" numLanes="1" speed="14.0"/>
    <edge id="e3" from="3" to="6" priority="1" numLanes="1" speed="14.0"/>
    <edge id="e4" from="4" to="6" priority="1" numLanes="1" speed="14.0"/>
    <edge id="e5" from="5" to="6" priority="1" numLanes="1" speed="14.0"/>

    <edge id="e6" from="6" to="1" priority="1" numLanes="1" speed="14.0"/>
    <edge id="e7" from="6" to="2" priority="1" numLanes="1" speed="14.0"/>
    <edge id="e8" from="6" to="3" priority="1" numLanes="1" speed="14.0"/>
    <edge id="e9" from="6" to="4" priority="1" numLanes="1" speed="14.0"/>
    <edge id="e10" from="6" to="5" priority="1" numLanes="1" speed="14.0"/>
</edges>