<nodes>
    <node id="1" x="0.0" y="500.0" type="priority"/>
    <node id="2" x="475.5284" y="154.508" type="priority"/>
    <node id="3" x="293.8926" y="-404.5084" type="priority"/>
    <node id="4" x="-293.8926" y="-404.5084" type="priority"/>
    <node id="5" x="-475.5284" y="154.508" type="priority"/>
    <node id="6" x="0.0" y="0.0" />
</nodes>
